/*--------------------------------*- C++ -*----------------------------------*\
  =========                 |
  \\      /  F ield         | OpenFOAM: The Open Source CFD Toolbox
   \\    /   O peration     | Website:  https://openfoam.org
    \\  /    A nd           | Version:  6
     \\/     M anipulation  |
\*---------------------------------------------------------------------------*/
FoamFile
{
    version     2.0;
    format      ascii;
    class       polyBoundaryMesh;
    location    "constant/polyMesh";
    object      boundary;
}
// * * * * * * * * * * * * * * * * * * * * * * * * * * * * * * * * * * * * * //

7
(
    fuel
    {
        type            patch;
        nFaces          4;
        startFace       9;
    }
    primary_air
    {
        type            patch;
        nFaces          1;
        startFace       13;
    }
    Secondary_air_RHS
    {
        type            patch;
        nFaces          1;
        startFace       14;
    }
    Secondary_air_LHS
    {
        type            patch;
        nFaces          1;
        startFace       15;
    }
    outlet
    {
        type            patch;
        nFaces          2;
        startFace       16;
    }
    stove_body
    {
        type            patch;
        nFaces          17;
        startFace       18;
    }
    frontAndBack
    {
        type            empty;
        inGroups        1(empty);
        nFaces          22;
        startFace       35;
    }
)

// ************************************************************************* //
